Header
  CHECK KEYWORDS Warn
  Mesh DB "." "."
  Include Path ""
  Results Directory ""
End

Simulation
  Max Output Level = 4
  Coordinate System = Cartesian
  Coordinate Mapping(3) = 1 2 3
  Simulation Type = Steady state
  Steady State Max Iterations = 1
  Output Intervals = 1
  Timestepping Method = BDF
  BDF Order = 1
  Solver Input File = case.sif
  Post File = case.ep
End

Constants
  Gravity(4) = 0 -1 0 9.82
  Stefan Boltzmann = 5.67e-08
  Permittivity of Vacuum = 8.8542e-12
  Boltzmann Constant = 1.3807e-23
  Unit Charge = 1.602e-19
End

Body 1
  Target Bodies(1) = 1
  Name = "Body 1"
  Equation = 1
  Material = 1
  Body Force = 1
  Initial condition = 1
End

Solver 1
  Equation = Static Current Conduction
  Procedure = "StatCurrentSolve" "StatCurrentSolver"
  Variable = -dofs 1 Potential
  Exec Solver = Always
  Stabilize = True
  Bubbles = False
  Lumped Mass Matrix = False
  Optimize Bandwidth = True
  Steady State Convergence Tolerance = 1.0e-5
  Nonlinear System Convergence Tolerance = 1.0e-8
  Nonlinear System Max Iterations = 20
  Nonlinear System Newton After Iterations = 3
  Nonlinear System Newton After Tolerance = 1.0e-3
  Nonlinear System Relaxation Factor = 1
  Linear System Solver = Iterative
  Linear System Iterative Method = BiCGStab
  Linear System Max Iterations = 500
  Linear System Convergence Tolerance = 1.0e-8
  Linear System Preconditioning = ILU0
  Linear System ILUT Tolerance = 1.0e-3
  Linear System Abort Not Converged = False
  Linear System Residual Output = 1
  Linear System Precondition Recompute = 1
End

Solver 2
  Equation = Heat Equation
  Variable = -dofs 1 Temperature
  Procedure = "HeatSolve" "HeatSolver"
  Exec Solver = Always
  Stabilize = True
  Bubbles = False
  Lumped Mass Matrix = False
  Optimize Bandwidth = True
  Steady State Convergence Tolerance = 1.0e-5
  Nonlinear System Convergence Tolerance = 1.0e-8
  Nonlinear System Max Iterations = 20
  Nonlinear System Newton After Iterations = 3
  Nonlinear System Newton After Tolerance = 1.0e-3
  Nonlinear System Relaxation Factor = 0.5
  Linear System Solver = Iterative
  Linear System Iterative Method = BiCGStab
  Linear System Max Iterations = 500
  Linear System Convergence Tolerance = 1.0e-8
  Linear System Preconditioning = ILU0
  Linear System ILUT Tolerance = 1.0e-3
  Linear System Abort Not Converged = False
  Linear System Residual Output = 1
  Linear System Precondition Recompute = 1
End

Solver 3 ! Set the correct solver number here.
              ! Usually you want to use the highest number so the results are saved at the end of a timestep.
  Exec Solver = String "after timestep"
  exec interval = 1
  Equation = String "ResultOutput"
  Procedure = File "ResultOutputSolve" "ResultOutputSolver"
  Output File Name = String "paraver." !or any other output file name of your choice
  Output Format = String "vtk"
  Vtk Format = Logical True
End

Equation 1
  Name = "Equation 1"
  Active Solvers(2) = 1 2
End

Material 1
  Name = "Aluminium (generic)"
  Porosity Model = van Genuchten
  Poisson ratio = 0.35
  Heat expansion Coefficient = 23.1e-6
  Electric Conductivity = 37.73e6
  Youngs modulus = 70.0e9
  Heat Conductivity = 237.0
  Sound speed = 5000.0
  Heat Capacity = 897.0
  Mesh Poisson ratio = 0.35
  Density = 2700.0
  Poisson ratio = 0.35
  Youngs modulus = 70.0e9
End

Body Force 1
  Name = "BodyForce 1"
  Joule Heat = True
End

Initial Condition 1
  Name = "InitialCondition 1"
  Temperature = 400
End

Boundary Condition 1
  Target Boundaries(1) = 1
  Name = "Radiation"
  Radiation = Idealized
External Temperature = 300
  Emissivity = 0.98
End

Boundary Condition 2
  Target Boundaries(1) = 2
  Name = "Radiation"
  Radiation = Idealized
External Temperature = 300
  Emissivity = 0.98
End

Boundary Condition 3
  Target Boundaries(1) = 3
  Name = "Radiation"
  Radiation = Idealized
External Temperature = 300
  Emissivity = 0.98
End

Boundary Condition 4
  Target Boundaries(1) = 4
  Name = "Radiation"
  Radiation = Idealized
External Temperature = 300
  Emissivity = 0.98
End

Boundary Condition 5
  Target Boundaries(1) = 5
  Name = "Radiation"
  Radiation = Idealized
External Temperature = 300
  Emissivity = 0.98
End

Boundary Condition 6
  Target Boundaries(1) = 6
  Name = "Radiation"
  Radiation = Idealized
External Temperature = 300
  Emissivity = 0.98
End

Boundary Condition 7
  Target Boundaries(1) = 7
  Name = "Radiation"
  Radiation = Idealized
External Temperature = 300
  Emissivity = 0.98
End

Boundary Condition 8
  Target Boundaries(1) = 8
  Name = "Radiation"
  Radiation = Idealized
External Temperature = 300
  Emissivity = 0.98
End

Boundary Condition 9
  Target Boundaries(1) = 9
  Name = "Radiation"
  Radiation = Idealized
External Temperature = 300
  Emissivity = 0.98
End

Boundary Condition 10
  Target Boundaries(1) = 10
  Name = "Radiation"
  Radiation = Idealized
External Temperature = 300
  Emissivity = 0.98
End

Boundary Condition 11
  Target Boundaries(1) = 11
  Name = "Radiation"
  Radiation = Idealized
External Temperature = 300
  Emissivity = 0.98
End

Boundary Condition 12
  Target Boundaries(1) = 12
  Name = "Radiation"
  Radiation = Idealized
External Temperature = 300
  Emissivity = 0.98
End

Boundary Condition 13
  Target Boundaries(1) = 13
  Name = "Radiation"
  Radiation = Idealized
External Temperature = 300
  Emissivity = 0.98
End

Boundary Condition 14
  Target Boundaries(1) = 14
  Name = "Radiation"
  Radiation = Idealized
External Temperature = 300
  Emissivity = 0.98
End

Boundary Condition 15
  Target Boundaries(1) = 15
  Name = "Radiation"
  Radiation = Idealized
External Temperature = 300
  Emissivity = 0.98
End

Boundary Condition 16
  Target Boundaries(1) = 16
  Name = "Radiation"
  Radiation = Idealized
External Temperature = 300
  Emissivity = 0.98
End

Boundary Condition 17
  Target Boundaries(1) = 17
  Name = "Anode"
  Radiation = Idealized
External Temperature = 300
  Emissivity = 0.98
  Potential = 12
End

Boundary Condition 18
  Target Boundaries(1) = 18
  Name = "Radiation"
  Radiation = Idealized
External Temperature = 300
  Emissivity = 0.98
End

Boundary Condition 19
  Target Boundaries(1) = 19
  Name = "Radiation"
  Radiation = Idealized
External Temperature = 300
  Emissivity = 0.98
End

Boundary Condition 20
  Target Boundaries(1) = 20
  Name = "Radiation"
  Radiation = Idealized
External Temperature = 300
  Emissivity = 0.98
End

Boundary Condition 21
  Target Boundaries(1) = 21
  Name = "Radiation"
  Radiation = Idealized
External Temperature = 300
  Emissivity = 0.98
End

Boundary Condition 22
  Target Boundaries(1) = 22
  Name = "Radiation"
  Radiation = Idealized
External Temperature = 300
  Emissivity = 0.98
End

Boundary Condition 23
  Target Boundaries(1) = 23
  Name = "Cathode"
  Radiation = Idealized
External Temperature = 300
  Emissivity = 0.98
  Potential = 0
End

Boundary Condition 24
  Target Boundaries(1) = 24
  Name = "FTTemp"
  Temperature = 350
End

Boundary Condition 25
  Target Boundaries(1) = 25
  Name = "FTTemp"
  Temperature = 350
End

Boundary Condition 26
  Target Boundaries(1) = 26
  Name = "Radiation"
  Radiation = Idealized
External Temperature = 300
  Emissivity = 0.98
End

Boundary Condition 27
  Target Boundaries(1) = 27
  Name = "Radiation"
  Radiation = Idealized
External Temperature = 300
  Emissivity = 0.98
End
