Header
  CHECK KEYWORDS Warn
  Mesh DB "." "."
  Include Path ""
  Results Directory ""
End

Simulation
  Max Output Level = 4
  Coordinate System = Cartesian
  Coordinate Mapping(3) = 1 2 3
  Simulation Type = Steady state
  Steady State Max Iterations = 1
  Output Intervals = 1
  Timestepping Method = BDF
  BDF Order = 1
  Solver Input File = case.sif
  Post File = case.ep
  View Factors ="ViewFactors.dat"
End

Constants
  Gravity(4) = 0 -1 0 9.82
  Stefan Boltzmann = 5.67e-08
  Permittivity of Vacuum = 8.8542e-12
  Boltzmann Constant = 1.3807e-23
  Unit Charge = 1.602e-19
End

Body 1
  Target Bodies(1) = 1
  Name = "Body 1"
  Equation = 1
  Material = 1
  Body Force = 1
  Initial Condition = 1
End

Solver 1
  Equation = Static Current Conduction
  Variable = -dofs 1 Potential
  Procedure = "StatCurrentSolve" "StatCurrentSolver"
  Exec Solver = Always
  Stabilize = True
  Bubbles = False
  Lumped Mass Matrix = False
  Optimize Bandwidth = True
  Steady State Convergence Tolerance = 1.0e-5
  Nonlinear System Convergence Tolerance = 1.0e-8
  Nonlinear System Max Iterations = 20
  Nonlinear System Newton After Iterations = 3
  Nonlinear System Newton After Tolerance = 1.0e-3
  Nonlinear System Relaxation Factor = 1
  Linear System Solver = Iterative
  Linear System Iterative Method = BiCGStab
  Linear System Max Iterations = 500
  Linear System Convergence Tolerance = 1.0e-8
  Linear System Preconditioning = ILU0
  Linear System ILUT Tolerance = 1.0e-3
  Linear System Abort Not Converged = False
  Linear System Residual Output = 1
  Linear System Precondition Recompute = 1
End

Solver 2
  Equation = Heat Equation
  Stabilize = True
  Linear System Solver = Iterative
  Linear System Iterative Method = BiCGStab
  Linear System Convergence Tolerance = 1.0e-12
  Linear System Max Iterations = 500
  Linear System Preconditioning = ILU
  Nonlinear System Newton After Iterations = 1
  Nonlinear System Newton After Tolerance = 1.0e-4
  Nonlinear System Max Iterations = 50
  NonLinear System Convergence Tolerance = 1.0e-8
  Steady State Convergence Tolerance = 1.0e-8
  Nonlinear System Relaxation Factor = 0.7
End

Solver 3 ! Set the correct solver number here.
              ! Usually you want to use the highest number so the results are saved at the end of a timestep.
  Exec Solver = String "after timestep"
  exec interval = 1
  Equation = String "ResultOutput"
  Procedure = File "ResultOutputSolve" "ResultOutputSolver"
  Output File Name = String "paraver." !or any other output file name of your choice
  Output Format = String "vtk"
  Vtk Format = Logical True
End

Equation 1
  Name = "Equation 1"
  Active Solvers(2) = 1 2
End

Material 1
  Name = "Aluminium (generic)"
  Porosity Model = van Genuchten
  Poisson ratio = 0.35
  Heat expansion Coefficient = 23.1e-6
  Electric Conductivity = 37.73e6
  Youngs modulus = 70.0e9
  Heat Conductivity = 237.0
  Sound speed = 5000.0
  Heat Capacity = 897.0
  Mesh Poisson ratio = 0.35
  Density = 2700.0
  Poisson ratio = 0.35
  Youngs modulus = 70.0e9
  Emissivity = 0.98
End

Initial Condition 1
  Temperature = 250.0
End

Body Force 1
  Name = "BodyForce 1"
  Joule Heat = True
End

Boundary Condition 1
  Name = "Radiation"
  Radiation = Diffuse Gray
  External Temperature = 250
  Radiation Target Body = -1
End

Boundary Condition 5
  Target Boundaries(1) = 24
  Name = "FTTemp"
  Temperature = 300
End

Boundary Condition 6
  Target Boundaries(1) = 25
  Name = "FTTemp"
  Temperature = 300
End
