Check Keywords Warn

Header
  Mesh DB "." "Thermal_Bowtie_Test"
End

Constants
  Stefan Boltzmann = 5.67e-8
End

Simulation
  Max Output Level = 3
  Coordinate System = Axi Symmetric
  Simulation Type = Steady State
  Steady State Max Iterations = 1
  Output Intervals = 1
! Output File = "radiation.result"
  Post File = "radiation.ep"
End

Body 1
  Equation = 1
  Name = "Rod"
  Material = 1
  Body Force = 1
  Initial Condition = 1
End

Body 2
  Equation = 2
  Name = "Sample"
  Material = 2
  Initial Condition = 1
End

Body 3
  Equation = 3
  Name = "Chamber"
  Material = 3
  Initial Condition = 1
End

Initial Condition 1
  Temperature = 298
End

Body Force 1
  Heat Source = 1.5927
End

Material 1
  Name = "Graphite"
  Heat expansion Coefficient = 5.9e-6
  Heat Conductivity = 50
  Heat Capacity = 700
  Density = 1800
End

Material 3
  Name = "Aluminum"
  Heat expansion Coefficient = 15.7e-6
  Heat Conductivity = 100
  Heat Capacity = 500.0
  Mesh Poisson ratio = 0.3
  Density = 7810.0
  Poisson ratio = 0.3
  Youngs modulus = 197.0e9
End

Solver 1
  Equation = Heat Equation
  Stabilize = True
  Linear System Solver = Iterative
  Linear System Iterative Method = BiCGStab
  Linear System Convergence Tolerance = 1.0e-12
  Linear System Max Iterations = 500
  Linear System Preconditioning = ILU
  Nonlinear System Newton After Iterations = 1
  Nonlinear System Newton After Tolerance = 1.0e-4
  Nonlinear System Max Iterations = 50
  NonLinear System Convergence Tolerance = 1.0e-8
  Steady State Convergence Tolerance = 1.0e-8
  Nonlinear System Relaxation Factor = 0.7

  Viewfactor area tolerance   = 1
  Viewfactor factor tolerance = 1
  Viewfactor number Of Rays = 1
End

Equation 1
  Active Solvers = 1
End

Equation 2
  Active Solvers = 1
End

Equation 3
  Active Solvers = 1
End

Boundary Condition 1
   Target Boundaries = 1
   Heat Flux BC = True
   Radiation = Diffuse Gray
   Emissivity = 1;
   Radiation Target Body = -1
End

Boundary Condition 2
   Target Boundaries = 2
   Heat Flux BC = True
   Radiation = Diffuse Gray
   Emissivity = 0.05;
   Radiation Target Body = -1
End

Boundary Condition 4
   Target Boundaries = 4
   Temperature = 373.15
End

$fprintf( stderr, "TEST CASE 1\n");
RUN
$fprintf( stderr, "END TEST CASE 1: Target NRM=309.13613, EPS=1.0e-4\n" );